12

 B  0.01040000  0.01040000  0.65729000
 B  0.65729000  0.01040000  0.01040000
 B  0.01040000  0.65729000  0.01040000
 B  0.98960000  0.98960000  0.34271000
 B  0.34271000  0.98960000  0.98960000
 B  0.98960000  0.34271000  0.98960000
 B  0.22060000  0.22060000  0.63230000
 B  0.63230000  0.22060000  0.22060000
 B  0.22060000  0.63230000  0.22060000
 B  0.77940000  0.77940000  0.36770000
 B  0.36770000  0.77940000  0.77940000
 B  0.77940000  0.36770000  0.77940000
