32

B   0.00000000  0.00000000  0.00000000
B   0.50000000  0.00000000  0.00000000
B   0.00000000  0.50000000  0.00000000
B   0.50000000  0.50000000  0.00000000
B   0.00000000  0.00000000  0.50000000
B   0.50000000  0.00000000  0.50000000
B   0.00000000  0.50000000  0.50000000
B   0.50000000  0.50000000  0.50000000
B   0.25000000  0.00000000  0.25000000
B   0.50000000  0.25000000  0.25000000
B   0.25000000  0.50000000  0.25000000
B   0.00000000  0.25000000  0.25000000
B   0.25000000  0.25000000  0.00000000
B   0.25000000  0.25000000  0.50000000
B   0.25000000  0.00000000  0.75000000
B   0.50000000  0.25000000  0.75000000
B   0.25000000  0.50000000  0.75000000
B   0.00000000  0.25000000  0.75000000
B   0.75000000  0.25000000  0.00000000
B   0.75000000  0.25000000  0.50000000
B   0.25000000  0.75000000  0.00000000
B   0.25000000  0.75000000  0.50000000
B   0.75000000  0.00000000  0.25000000
B   0.75000000  0.50000000  0.25000000
B   0.50000000  0.75000000  0.25000000
B   0.00000000  0.75000000  0.25000000
B   0.75000000  0.00000000  0.75000000
B   0.00000000  0.75000000  0.75000000
B   0.75000000  0.75000000  0.00000000
B   0.75000000  0.50000000  0.75000000
B   0.50000000  0.75000000  0.75000000
B   0.75000000  0.75000000  0.50000000
